data_DAST_clean
_audit_creation_method 'cleaned_for_exciton_analysis'
_symmetry_space_group_name_H-M 'C c'
loop_
_symmetry_equiv_pos_as_xyz
'x,y,z'
'x,-y,z+1/2'
'x+1/2,y+1/2,z'
'x+1/2,-y+1/2,z+1/2'
_cell_length_a 10.3553
_cell_length_b 11.3147
_cell_length_c 17.8661
_cell_angle_alpha 90.00000
_cell_angle_beta 92.224
_cell_angle_gamma 90.00000
loop_
_atom_site_label
_atom_site_type_symbol
_atom_site_fract_x
_atom_site_fract_y
_atom_site_fract_z
_atom_site_U_iso_or_equiv
_atom_site_occupancy
_atom_site_adp_type
N1     N  0.101200 0.139500 0.330100 0.00000 1.00000 Uiso
C1     C  0.170000 0.157200 0.262400 0.00000 1.00000 Uiso
C2     C  0.165900 0.176700 0.399000 0.00000 1.00000 Uiso
C3     C  0.977500 0.095900 0.327500 0.00000 1.00000 Uiso
C4     C  0.914800 0.064000 0.259800 0.00000 1.00000 Uiso
C5     C  0.790400 0.020700 0.258600 0.00000 1.00000 Uiso
C6     C  0.720600 0.006800 0.323100 0.00000 1.00000 Uiso
C7     C  0.784000 0.038800 0.390800 0.00000 1.00000 Uiso
C8     C  0.908800 0.081500 0.393400 0.00000 1.00000 Uiso
C9     C  0.589500 0.961800 0.317500 0.00000 1.00000 Uiso
C10    C  0.508200 0.949700 0.373100 0.00000 1.00000 Uiso
C11    C  0.378700 0.901800 0.364900 0.00000 1.00000 Uiso
C12    C  0.323600 0.860600 0.297400 0.00000 1.00000 Uiso
C13    C  0.200900 0.818400 0.294700 0.00000 1.00000 Uiso
C14    C  0.180200 0.851600 0.422000 0.00000 1.00000 Uiso
C15    C  0.303000 0.895200 0.427300 0.00000 1.00000 Uiso
C16    C  0.995700 0.769700 0.350600 0.00000 1.00000 Uiso
N2     N  0.129500 0.813600 0.356000 0.00000 1.00000 Uiso
C17    C  0.876700 0.225000 0.606500 0.00000 1.00000 Uiso
C18    C  0.021500 0.218100 0.599600 0.00000 1.00000 Uiso
C19    C  0.083900 0.109700 0.599800 0.00000 1.00000 Uiso
C20    C  0.217100 0.102600 0.594900 0.00000 1.00000 Uiso
C21    C  0.290500 0.204500 0.587400 0.00000 1.00000 Uiso
C22    C  0.227800 0.312200 0.585800 0.00000 1.00000 Uiso
C23    C  0.095400 0.319200 0.592600 0.00000 1.00000 Uiso
S1     S  0.461100 0.192600 0.578900 0.00000 1.00000 Uiso
O1     O  0.509600 0.312000 0.574500 0.00000 1.00000 Uiso
O2     O  0.506500 0.131500 0.645800 0.00000 1.00000 Uiso
O3     O  0.478500 0.125500 0.512100 0.00000 1.00000 Uiso
H1     H  0.119500 0.202300 0.226000 0.00000 1.00000 Uiso
H2     H  0.189100 0.081600 0.239000 0.00000 1.00000 Uiso
H3     H  0.250200 0.197100 0.272000 0.00000 1.00000 Uiso
H4     H  0.256600 0.180400 0.394900 0.00000 1.00000 Uiso
H5     H  0.147000 0.122600 0.439600 0.00000 1.00000 Uiso
H6     H  0.135100 0.254000 0.414200 0.00000 1.00000 Uiso
H7?    H  0.217600 0.245100 0.392100 0.00000 1.00000 Uiso
H8?    H  0.218800 0.114900 0.420400 0.00000 1.00000 Uiso
H9?    H  0.102200 0.197000 0.436300 0.00000 1.00000 Uiso
H10    H  0.935000 0.832700 0.349800 0.00000 1.00000 Uiso
H11    H  0.979400 0.720000 0.393800 0.00000 1.00000 Uiso
H12    H  0.981900 0.722000 0.306700 0.00000 1.00000 Uiso
H13    H  0.845800 0.303700 0.603000 0.00000 1.00000 Uiso
H14    H  0.851000 0.191700 0.653700 0.00000 1.00000 Uiso
H15    H  0.834400 0.178600 0.567100 0.00000 1.00000 Uiso
H16?   H  0.851600 0.289200 0.637100 0.00000 1.00000 Uiso
H17?   H  0.844900 0.152300 0.628800 0.00000 1.00000 Uiso
H18?   H  0.834700 0.232400 0.558000 0.00000 1.00000 Uiso
H19    H  0.958100 0.072800 0.214300 0.00000 1.00000 Uiso
H20    H  0.751300 0.999300 0.211700 0.00000 1.00000 Uiso
H21    H  0.739600 0.031400 0.436000 0.00000 1.00000 Uiso
H22    H  0.949500 0.101600 0.440300 0.00000 1.00000 Uiso
H23    H  0.558700 0.939200 0.268900 0.00000 1.00000 Uiso
H24    H  0.537900 0.973800 0.421700 0.00000 1.00000 Uiso
H25    H  0.371900 0.862400 0.253300 0.00000 1.00000 Uiso
H26    H  0.163900 0.791000 0.248400 0.00000 1.00000 Uiso
H27    H  0.129500 0.849200 0.465000 0.00000 1.00000 Uiso
H28    H  0.338000 0.919800 0.474600 0.00000 1.00000 Uiso
H29    H  0.034500 0.039300 0.603500 0.00000 1.00000 Uiso
H30    H  0.257000 0.027400 0.596600 0.00000 1.00000 Uiso
H31    H  0.275500 0.382500 0.579800 0.00000 1.00000 Uiso
H32    H  0.054100 0.393400 0.592000 0.00000 1.00000 Uiso
